CRYSTAL
PRIMVEC 1
      2.8059309808       2.8059309808      -0.0000000000
      2.8059309808      -0.0000000000       2.8059309808
     -0.0000000000       2.8059309808       2.8059309808
PRIMCOORD 1
2 1
14      -0.0000000000       0.0000000000       0.0000000000
14       1.4029654904       1.4029654904       1.4029654904
